1

   Abaqus 2020                                  Date 10-Mar-2020   Time 19:00:47
   For use by TECHNISCHE UNIVERSITAT WIEN under license from Dassault Systemes or its subsidiary.

                                                                                 
                                                                                 
 STEP    1     INCREMENT     1     STEP TIME    0.00    


                        S T E P       1     C A L C U L A T I O N   O F   E I G E N V A L U E S

                                            F O R   B U C K L I N G   P R E D I C T I O N



                                                                                          

     THE SUBSPACE ITERATION METHOD IS USED FOR THIS ANALYSIS
     NUMBER OF EIGENVALUES                      5
     MAXIMUM NUMBER OF ITERATIONS                     30
     NUMBER OF VECTORS IN ITERATION                   10
                              ONLY INITIAL STRESS EFFECTS ARE INCLUDED IN THE
                              STIFFNESS MATRIX

     THIS IS A LINEAR PERTURBATION STEP.
     ALL LOADS ARE DEFINED AS CHANGE IN LOAD TO THE REFERENCE STATE

     EXTRAPOLATION WILL NOT BE USED

     CHARACTERISTIC ELEMENT LENGTH      6.54    

     DETAILS REGARDING ACTUAL SOLUTION WAVEFRONT REQUESTED

     DETAILED OUTPUT OF DIAGNOSTICS TO DATABASE REQUESTED

     PRINT OF INCREMENT NUMBER, TIME, ETC., TO THE MESSAGE FILE EVERY     1  INCREMENTS

  NUMBER OF EQUATIONS =      2799     NUMBER OF RHS =    1
  NUMBER OF FLOATING PT. OPERATIONS =  1.37E+08

     CHECK POINT   START OF SOLVER    

     CHECK POINT  END OF SOLVER       

       ELAPSED USER TIME (SEC)      =  2.00000E-02
       ELAPSED SYSTEM TIME (SEC)    =  1.00000E-02
       ELAPSED TOTAL CPU TIME (SEC) =  3.00000E-02
       ELAPSED WALLCLOCK TIME (SEC) =          0
 
     ITERATION 1
      1       2.312866e+04     
      2       3.528270e+04     
      3       4.293160e+04     
      4       7.491058e+04     
      5       1.382063e+05     
      6       -1.495819e+05    
      7       -1.851630e+05    
      8       -2.245232e+05    
      9       -6.111460e+05    
      10      6.177915e+05     
 
     NUMBER OF EIGENVALUES CONVERGED UPTO THIS ITERATION = 0
 
     ITERATION 2
      1       9.246389e+02     
      2       1.017246e+03     
      3       1.323122e+03     
      4       1.691651e+03     
      5       2.442254e+03     
      6       2.883072e+03     
      7       2.928189e+03     
      8       3.520624e+03     
      9       5.199898e+03     
      10      5.397369e+03     
 
     NUMBER OF EIGENVALUES CONVERGED UPTO THIS ITERATION = 0
 
     ITERATION 3
      1       8.718696e+02     
      2       9.513226e+02     
      3       1.233595e+03     
      4       1.600701e+03     
      5       2.316196e+03     
      6       2.470740e+03     
      7       2.617801e+03     
      8       3.125998e+03     
      9       3.787102e+03     
      10      4.152968e+03     
 
     NUMBER OF EIGENVALUES CONVERGED UPTO THIS ITERATION = 0
 
     ITERATION 4
      1       8.683169e+02     
      2       9.458399e+02     
      3       1.227271e+03     
      4       1.588594e+03     
      5       2.302321e+03     
      6       2.388151e+03     
      7       2.527630e+03     
      8       2.951331e+03     
      9       3.445510e+03     
      10      3.784906e+03     
 
     NUMBER OF EIGENVALUES CONVERGED UPTO THIS ITERATION = 0
 
     ITERATION 5
      1       8.680584e+02     
      2       9.454137e+02     
      3       1.226594e+03     
      4       1.585645e+03     
      5       2.296239e+03     
      6       2.362235e+03     
      7       2.436003e+03     
      8       2.832946e+03     
      9       3.286269e+03     
      10      3.538760e+03     
 
     NUMBER OF EIGENVALUES CONVERGED UPTO THIS ITERATION = 0
 
     ITERATION 6
      1       8.680400e+02     
      2       9.453851e+02     
      3       1.226520e+03     
      4       1.584991e+03     
      5       2.291050e+03     
      6       2.346901e+03     
      7       2.383286e+03     
      8       2.782323e+03     
      9       3.198707e+03     
      10      3.382864e+03     
 
     NUMBER OF EIGENVALUES CONVERGED UPTO THIS ITERATION = 0
 
     ITERATION 7
      1       8.680387e+02     
      2       9.453833e+02     
      3       1.226512e+03     
      4       1.584870e+03     
      5       2.286525e+03     
      6       2.333180e+03     
      7       2.368656e+03     
      8       2.762900e+03     
      9       3.131358e+03     
      10      3.298138e+03     
 
     NUMBER OF EIGENVALUES CONVERGED UPTO THIS ITERATION = 0
 
     ITERATION 8
      1       8.680387e+02     
      2       9.453832e+02     
      3       1.226511e+03     
      4       1.584850e+03     
      5       2.283859e+03     
      6       2.326446e+03     
      7       2.364981e+03     
      8       2.755295e+03     
      9       3.080506e+03     
      10      3.253233e+03     
 
     NUMBER OF EIGENVALUES CONVERGED UPTO THIS ITERATION = 3
 
     ITERATION 9
      1       8.680386e+02     
      2       9.453832e+02     
      3       1.226511e+03     
      4       1.584847e+03     
      5       2.282717e+03     
      6       2.323744e+03     
      7       2.363738e+03     
      8       2.752257e+03     
      9       3.045977e+03     
      10      3.226410e+03     
 
     NUMBER OF EIGENVALUES CONVERGED UPTO THIS ITERATION = 3
 
     ITERATION 10
      1       8.680386e+02     
      2       9.453832e+02     
      3       1.226511e+03     
      4       1.584846e+03     
      5       2.282288e+03     
      6       2.322639e+03     
      7       2.363237e+03     
      8       2.751024e+03     
      9       3.023147e+03     
      10      3.208576e+03     
 
     NUMBER OF EIGENVALUES CONVERGED UPTO THIS ITERATION = 4
 
     ITERATION 11
      1       8.680386e+02     
      2       9.453832e+02     
      3       1.226511e+03     
      4       1.584846e+03     
      5       2.282131e+03     
      6       2.322163e+03     
      7       2.363014e+03     
      8       2.750515e+03     
      9       3.007594e+03     
      10      3.195987e+03     
 
     NUMBER OF EIGENVALUES CONVERGED UPTO THIS ITERATION = 4
 
     ITERATION 12
      1       8.680386e+02     
      2       9.453832e+02     
      3       1.226511e+03     
      4       1.584846e+03     
      5       2.282072e+03     
      6       2.321949e+03     
      7       2.362909e+03     
      8       2.750299e+03     
      9       2.996452e+03     
      10      3.186792e+03     
 
     NUMBER OF EIGENVALUES CONVERGED UPTO THIS ITERATION = 4
 
     ITERATION 13
      1       8.680386e+02     
      2       9.453832e+02     
      3       1.226511e+03     
      4       1.584846e+03     
      5       2.282048e+03     
      6       2.321850e+03     
      7       2.362858e+03     
      8       2.750203e+03     
      9       2.988097e+03     
      10      3.179905e+03     
 
     NUMBER OF EIGENVALUES CONVERGED UPTO THIS ITERATION = 4
 
     ITERATION 14
      1       8.680386e+02     
      2       9.453832e+02     
      3       1.226511e+03     
      4       1.584846e+03     
      5       2.282039e+03     
      6       2.321803e+03     
      7       2.362832e+03     
      8       2.750159e+03     
      9       2.981634e+03     
      10      3.174623e+03     
 
     NUMBER OF EIGENVALUES CONVERGED UPTO THIS ITERATION = 4
 
     ITERATION 15
      1       8.680386e+02     
      2       9.453832e+02     
      3       1.226511e+03     
      4       1.584846e+03     
      5       2.282035e+03     
      6       2.321780e+03     
      7       2.362820e+03     
      8       2.750137e+03     
      9       2.976552e+03     
      10      3.170480e+03     
 
     NUMBER OF EIGENVALUES CONVERGED UPTO THIS ITERATION = 4
 
     ITERATION 16
      1       8.680386e+02     
      2       9.453832e+02     
      3       1.226511e+03     
      4       1.584846e+03     
      5       2.282033e+03     
      6       2.321770e+03     
      7       2.362813e+03     
      8       2.750125e+03     
      9       2.972531e+03     
      10      3.167158e+03     
 
     NUMBER OF EIGENVALUES CONVERGED UPTO THIS ITERATION = 5
1

   Abaqus 2020                                  Date 10-Mar-2020   Time 19:00:48
   For use by TECHNISCHE UNIVERSITAT WIEN under license from Dassault Systemes or its subsidiary.

                                                                                 
                                                                                 
 STEP    2     INCREMENT     1     STEP TIME    0.00    


                        S T E P       2     S T A T I C   A N A L Y S I S


                                                                                          

          FIXED TIME INCREMENTS
          TIME INCREMENT IS                                     1.00    
          TIME PERIOD IS                                        1.00    

     LINEAR EQUATION SOLVER TYPE         DIRECT SPARSE

 CONVERGENCE TOLERANCE PARAMETERS FOR FORCE    
     CRITERION FOR RESIDUAL FORCE     FOR A NONLINEAR PROBLEM          5.000E-03
     CRITERION FOR DISP.    CORRECTION IN A NONLINEAR PROBLEM          1.000E-02
     INIT. VALUE OF TIME AVG. FORCE     IS TIME AVG. FORCE     IN PREVIOUS STEP
     AVERAGE FORCE     IS TIME AVERAGE FORCE    
     ALTERNATE CRIT. FOR RESIDUAL FORCE     FOR A NONLINEAR PROBLEM    2.000E-02
     CRITERION FOR ZERO FORCE     RELATIVE TO TIME AVRG. FORCE         1.000E-05
     CRITERION FOR RESIDUAL FORCE     WHEN THERE IS ZERO FLUX          1.000E-05
     CRITERION FOR DISP.    CORRECTION WHEN THERE IS ZERO FLUX         1.000E-03
     CRITERION FOR RESIDUAL FORCE     FOR A LINEAR INCREMENT           1.000E-08
     FIELD CONVERSION RATIO                                             1.00    
     CRITERION FOR ZERO FORCE     REL. TO TIME AVRG. MAX. FORCE        1.000E-05
     CRITERION FOR ZERO DISP.    RELATIVE TO CHARACTERISTIC LENGTH     1.000E-08

     VOLUMETRIC STRAIN COMPATIBILITY TOLERANCE FOR HYBRID SOLIDS       1.000E-05
     AXIAL STRAIN COMPATIBILITY TOLERANCE FOR HYBRID BEAMS             1.000E-05
     TRANS. SHEAR STRAIN COMPATIBILITY TOLERANCE FOR HYBRID BEAMS      1.000E-05
     SOFT CONTACT CONSTRAINT COMPATIBILITY TOLERANCE FOR P>P0          5.000E-03
     SOFT CONTACT CONSTRAINT COMPATIBILITY TOLERANCE FOR P=0.0         0.100    
     CONTACT FORCE ERROR TOLERANCE FOR CONVERT SDI=YES                 1.00    
     DISPLACEMENT COMPATIBILITY TOLERANCE FOR DCOUP ELEMENTS           1.000E-05
     ROTATION COMPATIBILITY TOLERANCE FOR DCOUP ELEMENTS               1.000E-05

 EQUILIBRIUM WILL BE CHECKED FOR SEVERE DISCONTINUITY ITERATIONS

 ITERATION CONTROL PARAMETERS:
     FIRST EQUILIBRIUM ITERATION FOR CONSECUTIVE DIVERGENCE CHECK              4
     EQUILIBRIUM ITERATION AFTER WHICH ALTERNATE RESIDUAL IS USED              9
     MAXIMUM EQUILIBRIUM ITERATIONS ALLOWED                                   16
     MAXIMUM ITERATIONS FOR SEVERE DISCONTINUITIES                            12
     GLOBAL STABILIZATION CONTROL IS NOT USED

          PRINT OF INCREMENT NUMBER, TIME, ETC., EVERY    1  INCREMENTS

     THE MAXIMUM NUMBER OF INCREMENTS IN THIS STEP IS                     100

     LINEAR EXTRAPOLATION WILL BE USED

     CHARACTERISTIC ELEMENT LENGTH      6.54    

     DETAILS REGARDING ACTUAL SOLUTION WAVEFRONT REQUESTED

     DETAILED OUTPUT OF DIAGNOSTICS TO DATABASE REQUESTED

     PRINT OF INCREMENT NUMBER, TIME, ETC., TO THE MESSAGE FILE EVERY     1  INCREMENTS

     COLLECTING MODEL CONSTRAINT INFORMATION FOR OVERCONSTRAINT CHECKS

     COLLECTING STEP CONSTRAINT INFORMATION FOR OVERCONSTRAINT CHECKS


  INCREMENT     1 STARTS. ATTEMPT NUMBER  1, TIME INCREMENT   1.00    

  NUMBER OF EQUATIONS =      2799     NUMBER OF RHS =    1
  NUMBER OF FLOATING PT. OPERATIONS =  1.37E+08

     CHECK POINT   START OF SOLVER    

     CHECK POINT  END OF SOLVER       

       ELAPSED USER TIME (SEC)      =  2.00000E-02
       ELAPSED SYSTEM TIME (SEC)    =   0.0000    
       ELAPSED TOTAL CPU TIME (SEC) =  2.00000E-02
       ELAPSED WALLCLOCK TIME (SEC) =          0

               CONVERGENCE CHECKS FOR EQUILIBRIUM ITERATION     1


 AVERAGE FORCE                      0.569       TIME AVG. FORCE       0.569    
 LARGEST RESIDUAL FORCE            -6.365E-14   AT NODE        725   DOF  2
 LARGEST INCREMENT OF DISP.        -3.744E-06   AT NODE        507   DOF  2
 LARGEST CORRECTION TO DISP.       -3.744E-06   AT NODE        507   DOF  2
          THE FORCE     EQUILIBRIUM RESPONSE WAS LINEAR IN THIS INCREMENT

 ITERATION SUMMARY FOR THE INCREMENT:   1 TOTAL ITERATIONS, OF WHICH
   0 ARE SEVERE DISCONTINUITY ITERATIONS AND  1 ARE EQUILIBRIUM ITERATIONS.

 TIME INCREMENT COMPLETED   1.00    ,  FRACTION OF STEP COMPLETED   1.00    
 STEP TIME COMPLETED        1.00    ,  TOTAL TIME COMPLETED         1.00    


          THE ANALYSIS HAS BEEN COMPLETED



     ANALYSIS SUMMARY:
     TOTAL OF          2  INCREMENTS
                       0  CUTBACKS IN AUTOMATIC INCREMENTATION
                       2  ITERATIONS INCLUDING CONTACT ITERATIONS IF PRESENT
                       2  PASSES THROUGH THE EQUATION SOLVER OF WHICH 
                       2  INVOLVE MATRIX DECOMPOSITION, INCLUDING
                       0  DECOMPOSITION(S) OF THE MASS MATRIX
                       1  REORDERING OF EQUATIONS TO MINIMIZE WAVEFRONT
                       0  ADDITIONAL RESIDUAL EVALUATIONS FOR LINE SEARCHES
                       0  ADDITIONAL OPERATOR EVALUATIONS FOR LINE SEARCHES
                       2  WARNING MESSAGES DURING USER INPUT PROCESSING
                       0  WARNING MESSAGES DURING ANALYSIS
                       0  ANALYSIS WARNINGS ARE NUMERICAL PROBLEM MESSAGES
                       0  ANALYSIS WARNINGS ARE NEGATIVE EIGENVALUE MESSAGES
                       0  ERROR MESSAGES



     JOB TIME SUMMARY
       USER TIME (SEC)      =  0.86000    
       SYSTEM TIME (SEC)    =  6.00000E-02
       TOTAL CPU TIME (SEC) =  0.92000    
       WALLCLOCK TIME (SEC) =          1
