 Abaqus/Standard Student Edition 2018                  DATE 04-J‰n-2020 TIME 13:18:37
 SUMMARY OF JOB INFORMATION:
 STEP  INC ATT SEVERE EQUIL TOTAL  TOTAL      STEP       INC OF       DOF    IF
               DISCON ITERS ITERS  TIME/    TIME/LPF    TIME/LPF    MONITOR RIKS
               ITERS               FREQ
   1     1   1     0     0     0  0.000      1.00e-36   1.000e-36 
   2     1   1     0     1     1  1.00       1.00       1.000     
                          
 THE ANALYSIS HAS COMPLETED SUCCESSFULLY
