// Define used to check if ANSYS CFX result file input is active

#cmakedefine USE_CFXIO
